/*--------------------------------*- C++ -*----------------------------------*\
| =========                 |                                                 |
| \\      /  F ield         | OpenFOAM: The Open Source CFD Toolbox           |
|  \\    /   O peration     | Version:  dev-OpenCFD                           |
|   \\  /    A nd           | Web:      www.OpenFOAM.org                      |
|    \\/     M anipulation  |                                                 |
\*---------------------------------------------------------------------------*/
FoamFile
{
    version     2.0;
    format      ascii;
    class       volScalarField;
    location    "0";
    object      epsilon;
}
// * * * * * * * * * * * * * * * * * * * * * * * * * * * * * * * * * * * * * //

dimensions      [0 2 -3 0 0 0 0];

internalField   uniform 0.00033;

boundaryField
{
    inlet
    {
        type            fixedValue;
        value           uniform 0.0033;
    }
    outlet
    {
        type            zeroGradient;
    }
    wall
    {
        type            epsilonWallFunction;
        value           uniform 0.0033;
    }
    front
    {
        type            empty;
    }
    back
    {
        type            empty;
	}
}


// ************************************************************************* //
